#---------------------------------------------------------------------------
#CTI File converted from Solution Object
#---------------------------------------------------------------------------

units(length = "cm", time = "s", quantity = "mol", act_energy = "cal/mol")

ideal_gas( name = "gri30", 
             elements = "O H C N Ar", 
             species =""" H2  H  O  O2  OH  H2O  HO2  H2O2  C  CH  CH2  CH2(S)
                        CH3  CH4  CO  CO2  HCO  CH2O
                        CH2OH  CH3O  CH3OH  C2H  C2H2
                        C2H3  C2H4  C2H5  C2H6  HCCO
                        CH2CO  HCCOH  N  NH  NH2  NH3
                        NNH  NO  NO2  N2O  HNO  CN  HCN
                        H2CN  HCNN  HCNO  HOCN  HNCO
                        NCO  N2  AR  C3H7  C3H8  CH2CHO
                        CH3CHO""", 
            reactions = "all", 
             initial_state = state(temperature = 300.0, 
                                     pressure= OneAtm)        )

#---------------------------------------------------------------------------
#Species_data
#---------------------------------------------------------------------------

species(name = "H2",
        atoms = "H:2", 
        thermo= (
)       NASA( [200.0, 1000.0], [3.3372792, -4.94024731e-05,
           4.99456778e-07, -1.79566394e-10, 2.00255376e-14,
           -950.158922, -3.20502331]  ),
       NASA( [1000.0, 3500.0], [2.34433112, 0.00798052075,
           -1.9478151e-05, 2.01572094e-08, -7.37611761e-12,
           -917.935173, 0.683010238]  )
           ), 
       transport = gas_transport( 
                      geom = "linear",
                      diam = 2.92,
                      well_depth = 5.24646541131,
                      polar = 0.79,
                       rot_relax= 280.0         )        
        )

species(name = "H",
        atoms = "H:1", 
        thermo= (
)       NASA( [200.0, 1000.0], [2.50000001, -2.30842973e-11,
           1.61561948e-14, -4.73515235e-18, 4.98197357e-22,
           25473.6599, -0.446682914]  ),
       NASA( [1000.0, 3500.0], [2.5, 7.05332819e-13,
           -1.99591964e-15, 2.30081632e-18, -9.27732332e-22,
           25473.6599, -0.446682853]  )
           ), 
       transport = gas_transport( 
                      geom = "atom",
                      diam = 2.05,
                      well_depth = 20.0194074905,
                      polar = 0.0,
                       rot_relax= 0.0         )        
        )

species(name = "O",
        atoms = "O:1", 
        thermo= (
)       NASA( [200.0, 1000.0], [2.56942078, -8.59741137e-05,
           4.19484589e-08, -1.00177799e-11, 1.22833691e-15,
           29217.5791, 4.78433864]  ),
       NASA( [1000.0, 3500.0], [3.1682671, -0.00327931884,
           6.64306396e-06, -6.12806624e-09, 2.11265971e-12,
           29122.2592, 2.05193346]  )
           ), 
       transport = gas_transport( 
                      geom = "atom",
                      diam = 2.75,
                      well_depth = 11.0451903396,
                      polar = 0.0,
                       rot_relax= 0.0         )        
        )

species(name = "O2",
        atoms = "O:2", 
        thermo= (
)       NASA( [200.0, 1000.0], [3.28253784, 0.00148308754,
           -7.57966669e-07, 2.09470555e-10, -2.16717794e-14,
           -1088.45772, 5.45323129]  ),
       NASA( [1000.0, 3500.0], [3.78245636, -0.00299673416,
           9.84730201e-06, -9.68129509e-09, 3.24372837e-12,
           -1063.94356, 3.65767573]  )
           ), 
       transport = gas_transport( 
                      geom = "linear",
                      diam = 3.46,
                      well_depth = 14.8281680309,
                      polar = 1.6,
                       rot_relax= 3.8         )        
        )

species(name = "OH",
        atoms = "H:1  O:1", 
        thermo= (
)       NASA( [200.0, 1000.0], [3.09288767, 0.000548429716,
           1.26505228e-07, -8.79461556e-11, 1.17412376e-14,
           3858.657, 4.4766961]  ),
       NASA( [1000.0, 3500.0], [3.99201543, -0.00240131752,
           4.61793841e-06, -3.88113333e-09, 1.3641147e-12,
           3615.08056, -0.103925458]  )
           ), 
       transport = gas_transport( 
                      geom = "linear",
                      diam = 2.75,
                      well_depth = 11.0451903396,
                      polar = 0.0,
                       rot_relax= 0.0         )        
        )

species(name = "H2O",
        atoms = "H:2  O:1", 
        thermo= (
)       NASA( [200.0, 1000.0], [3.03399249, 0.00217691804,
           -1.64072518e-07, -9.7041987e-11, 1.68200992e-14,
           -30004.2971, 4.9667701]  ),
       NASA( [1000.0, 3500.0], [4.19864056, -0.0020364341,
           6.52040211e-06, -5.48797062e-09, 1.77197817e-12,
           -30293.7267, -0.849032208]  )
           ), 
       transport = gas_transport( 
                      geom = "nonlinear",
                      diam = 2.6,
                      well_depth = 79.0283368798,
                      polar = 0.0,
                       rot_relax= 4.0         )        
        )

species(name = "HO2",
        atoms = "H:1  O:2", 
        thermo= (
)       NASA( [200.0, 1000.0], [4.0172109, 0.00223982013,
           -6.3365815e-07, 1.1424637e-10, -1.07908535e-14,
           111.856713, 3.78510215]  ),
       NASA( [1000.0, 3500.0], [4.30179801, -0.00474912051,
           2.11582891e-05, -2.42763894e-08, 9.29225124e-12,
           294.80804, 3.71666245]  )
           ), 
       transport = gas_transport( 
                      geom = "nonlinear",
                      diam = 3.46,
                      well_depth = 14.8281680309,
                      polar = 0.0,
                       rot_relax= 1.0         )        
        )

species(name = "H2O2",
        atoms = "H:2  O:2", 
        thermo= (
)       NASA( [200.0, 1000.0], [4.16500285, 0.00490831694,
           -1.90139225e-06, 3.71185986e-10, -2.87908305e-14,
           -17861.7877, 2.91615662]  ),
       NASA( [1000.0, 3500.0], [4.27611269, -0.000542822417,
           1.67335701e-05, -2.15770813e-08, 8.62454363e-12,
           -17702.5821, 3.43505074]  )
           ), 
       transport = gas_transport( 
                      geom = "nonlinear",
                      diam = 3.46,
                      well_depth = 14.8281680309,
                      polar = 0.0,
                       rot_relax= 3.8         )        
        )

species(name = "C",
        atoms = "C:1", 
        thermo= (
)       NASA( [200.0, 1000.0], [2.49266888, 4.79889284e-05,
           -7.2433502e-08, 3.74291029e-11, -4.87277893e-15,
           85451.2953, 4.80150373]  ),
       NASA( [1000.0, 3500.0], [2.55423955, -0.000321537724,
           7.33792245e-07, -7.32234889e-10, 2.66521446e-13,
           85443.8832, 4.53130848]  )
           ), 
       transport = gas_transport( 
                      geom = "atom",
                      diam = 3.3,
                      well_depth = 9.85783237809,
                      polar = 0.0,
                       rot_relax= 0.0         )        
        )

species(name = "CH",
        atoms = "H:1  C:1", 
        thermo= (
)       NASA( [200.0, 1000.0], [2.87846473, 0.000970913681,
           1.44445655e-07, -1.30687849e-10, 1.76079383e-14,
           71012.4364, 5.48497999]  ),
       NASA( [1000.0, 3500.0], [3.48981665, 0.000323835541,
           -1.68899065e-06, 3.16217327e-09, -1.40609067e-12,
           70797.2934, 2.08401108]  )
           ), 
       transport = gas_transport( 
                      geom = "linear",
                      diam = 2.75,
                      well_depth = 11.0451903396,
                      polar = 0.0,
                       rot_relax= 0.0         )        
        )

species(name = "CH2",
        atoms = "H:2  C:1", 
        thermo= (
)       NASA( [200.0, 1000.0], [2.87410113, 0.00365639292,
           -1.40894597e-06, 2.60179549e-10, -1.87727567e-14,
           46263.604, 6.17119324]  ),
       NASA( [1000.0, 3500.0], [3.76267867, 0.000968872143,
           2.79489841e-06, -3.85091153e-09, 1.68741719e-12,
           46004.0401, 1.56253185]  )
           ), 
       transport = gas_transport( 
                      geom = "linear",
                      diam = 3.8,
                      well_depth = 19.8813426113,
                      polar = 0.0,
                       rot_relax= 0.0         )        
        )

species(name = "CH2(S)",
        atoms = "H:2  C:1", 
        thermo= (
)       NASA( [200.0, 1000.0], [2.29203842, 0.00465588637,
           -2.01191947e-06, 4.17906e-10, -3.39716365e-14,
           50925.9997, 8.62650169]  ),
       NASA( [1000.0, 3500.0], [4.19860411, -0.00236661419,
           8.2329622e-06, -6.68815981e-09, 1.94314737e-12,
           50496.8163, -0.769118967]  )
           ), 
       transport = gas_transport( 
                      geom = "linear",
                      diam = 3.8,
                      well_depth = 19.8813426113,
                      polar = 0.0,
                       rot_relax= 0.0         )        
        )

species(name = "CH3",
        atoms = "H:3  C:1", 
        thermo= (
)       NASA( [200.0, 1000.0], [2.28571772, 0.00723990037,
           -2.98714348e-06, 5.95684644e-10, -4.67154394e-14,
           16775.5843, 8.48007179]  ),
       NASA( [1000.0, 3500.0], [3.6735904, 0.00201095175,
           5.73021856e-06, -6.87117425e-09, 2.54385734e-12,
           16444.9988, 1.60456433]  )
           ), 
       transport = gas_transport( 
                      geom = "linear",
                      diam = 3.8,
                      well_depth = 19.8813426113,
                      polar = 0.0,
                       rot_relax= 0.0         )        
        )

species(name = "CH4",
        atoms = "H:4  C:1", 
        thermo= (
)       NASA( [200.0, 1000.0], [0.074851495, 0.0133909467,
           -5.73285809e-06, 1.22292535e-09, -1.0181523e-13,
           -9468.34459, 18.437318]  ),
       NASA( [1000.0, 3500.0], [5.14987613, -0.0136709788,
           4.91800599e-05, -4.84743026e-08, 1.66693956e-11,
           -10246.6476, -4.64130376]  )
           ), 
       transport = gas_transport( 
                      geom = "nonlinear",
                      diam = 3.75,
                      well_depth = 19.5223739252,
                      polar = 2.6,
                       rot_relax= 13.0         )        
        )

species(name = "CO",
        atoms = "C:1  O:1", 
        thermo= (
)       NASA( [200.0, 1000.0], [2.71518561, 0.00206252743,
           -9.98825771e-07, 2.30053008e-10, -2.03647716e-14,
           -14151.8724, 7.81868772]  ),
       NASA( [1000.0, 3500.0], [3.57953347, -0.00061035368,
           1.01681433e-06, 9.07005884e-10, -9.04424499e-13,
           -14344.086, 3.50840928]  )
           ), 
       transport = gas_transport( 
                      geom = "linear",
                      diam = 3.65,
                      well_depth = 13.5441646539,
                      polar = 1.95,
                       rot_relax= 1.8         )        
        )

species(name = "CO2",
        atoms = "C:1  O:2", 
        thermo= (
)       NASA( [200.0, 1000.0], [3.85746029, 0.00441437026,
           -2.21481404e-06, 5.23490188e-10, -4.72084164e-14,
           -48759.166, 2.27163806]  ),
       NASA( [1000.0, 3500.0], [2.35677352, 0.00898459677,
           -7.12356269e-06, 2.45919022e-09, -1.43699548e-13,
           -48371.9697, 9.90105222]  )
           ), 
       transport = gas_transport( 
                      geom = "linear",
                      diam = 3.76,
                      well_depth = 33.6878305358,
                      polar = 2.65,
                       rot_relax= 2.1         )        
        )

species(name = "HCO",
        atoms = "H:1  C:1  O:1", 
        thermo= (
)       NASA( [200.0, 1000.0], [2.77217438, 0.00495695526,
           -2.48445613e-06, 5.89161778e-10, -5.33508711e-14,
           4011.91815, 9.79834492]  ),
       NASA( [1000.0, 3500.0], [4.22118584, -0.00324392532,
           1.37799446e-05, -1.33144093e-08, 4.33768865e-12,
           3839.56496, 3.39437243]  )
           ), 
       transport = gas_transport( 
                      geom = "nonlinear",
                      diam = 3.59,
                      well_depth = 68.756309864,
                      polar = 0.0,
                       rot_relax= 0.0         )        
        )

species(name = "CH2O",
        atoms = "H:2  C:1  O:1", 
        thermo= (
)       NASA( [200.0, 1000.0], [1.76069008, 0.00920000082,
           -4.42258813e-06, 1.00641212e-09, -8.8385564e-14,
           -13995.8323, 13.656323]  ),
       NASA( [1000.0, 3500.0], [4.79372315, -0.00990833369,
           3.73220008e-05, -3.79285261e-08, 1.31772652e-11,
           -14308.9567, 0.6028129]  )
           ), 
       transport = gas_transport( 
                      geom = "nonlinear",
                      diam = 3.59,
                      well_depth = 68.756309864,
                      polar = 0.0,
                       rot_relax= 2.0         )        
        )

species(name = "CH2OH",
        atoms = "H:3  C:1  O:1", 
        thermo= (
)       NASA( [200.0, 1000.0], [3.69266569, 0.00864576797,
           -3.7510112e-06, 7.87234636e-10, -6.48554201e-14,
           -3242.50627, 5.81043215]  ),
       NASA( [1000.0, 3500.0], [3.86388918, 0.00559672304,
           5.93271791e-06, -1.04532012e-08, 4.36967278e-12,
           -3193.91367, 5.47302243]  )
           ), 
       transport = gas_transport( 
                      geom = "nonlinear",
                      diam = 3.69,
                      well_depth = 57.5730546452,
                      polar = 0.0,
                       rot_relax= 2.0         )        
        )

species(name = "CH3O",
        atoms = "H:3  C:1  O:1", 
        thermo= (
)       NASA( [300.0, 1000.0], [3.770799, 0.007871497,
           -2.656384e-06, 3.944431e-10, -2.112616e-14,
           127.83252, 2.929575]  ),
       NASA( [1000.0, 3000.0], [2.106204, 0.007216595,
           5.338472e-06, -7.377636e-09, 2.07561e-12,
           978.6011, 13.152177]  )
           ), 
       transport = gas_transport( 
                      geom = "nonlinear",
                      diam = 3.69,
                      well_depth = 57.5730546452,
                      polar = 0.0,
                       rot_relax= 2.0         )        
        )

species(name = "CH3OH",
        atoms = "H:4  C:1  O:1", 
        thermo= (
)       NASA( [200.0, 1000.0], [1.78970791, 0.0140938292,
           -6.36500835e-06, 1.38171085e-09, -1.1706022e-13,
           -25374.8747, 14.5023623]  ),
       NASA( [1000.0, 3500.0], [5.71539582, -0.0152309129,
           6.52441155e-05, -7.10806889e-08, 2.61352698e-11,
           -25642.7656, -1.50409823]  )
           ), 
       transport = gas_transport( 
                      geom = "nonlinear",
                      diam = 3.63,
                      well_depth = 66.5196588202,
                      polar = 0.0,
                       rot_relax= 1.0         )        
        )

species(name = "C2H",
        atoms = "H:1  C:2", 
        thermo= (
)       NASA( [200.0, 1000.0], [3.16780652, 0.00475221902,
           -1.83787077e-06, 3.04190252e-10, -1.7723277e-14,
           67121.065, 6.63589475]  ),
       NASA( [1000.0, 3500.0], [2.88965733, 0.0134099611,
           -2.84769501e-05, 2.94791045e-08, -1.09331511e-11,
           66839.3932, 6.22296438]  )
           ), 
       transport = gas_transport( 
                      geom = "linear",
                      diam = 4.1,
                      well_depth = 28.8555597622,
                      polar = 0.0,
                       rot_relax= 2.5         )        
        )

species(name = "C2H2",
        atoms = "H:2  C:2", 
        thermo= (
)       NASA( [200.0, 1000.0], [4.14756964, 0.00596166664,
           -2.37294852e-06, 4.67412171e-10, -3.61235213e-14,
           25935.9992, -1.23028121]  ),
       NASA( [1000.0, 3500.0], [0.808681094, 0.0233615629,
           -3.55171815e-05, 2.80152437e-08, -8.50072974e-12,
           26428.9807, 13.9397051]  )
           ), 
       transport = gas_transport( 
                      geom = "linear",
                      diam = 4.1,
                      well_depth = 28.8555597622,
                      polar = 0.0,
                       rot_relax= 2.5         )        
        )

species(name = "C2H3",
        atoms = "H:3  C:2", 
        thermo= (
)       NASA( [200.0, 1000.0], [3.016724, 0.0103302292,
           -4.68082349e-06, 1.01763288e-09, -8.62607041e-14,
           34612.8739, 7.78732378]  ),
       NASA( [1000.0, 3500.0], [3.21246645, 0.00151479162,
           2.59209412e-05, -3.57657847e-08, 1.47150873e-11,
           34859.8468, 8.51054025]  )
           ), 
       transport = gas_transport( 
                      geom = "nonlinear",
                      diam = 4.1,
                      well_depth = 28.8555597622,
                      polar = 0.0,
                       rot_relax= 1.0         )        
        )

species(name = "C2H4",
        atoms = "H:4  C:2", 
        thermo= (
)       NASA( [200.0, 1000.0], [2.03611116, 0.0146454151,
           -6.71077915e-06, 1.47222923e-09, -1.25706061e-13,
           4939.88614, 10.3053693]  ),
       NASA( [1000.0, 3500.0], [3.95920148, -0.00757052247,
           5.70990292e-05, -6.91588753e-08, 2.69884373e-11,
           5089.77593, 4.09733096]  )
           ), 
       transport = gas_transport( 
                      geom = "nonlinear",
                      diam = 3.97,
                      well_depth = 38.768618092,
                      polar = 0.0,
                       rot_relax= 1.5         )        
        )

species(name = "C2H5",
        atoms = "H:5  C:2", 
        thermo= (
)       NASA( [200.0, 1000.0], [1.95465642, 0.0173972722,
           -7.98206668e-06, 1.75217689e-09, -1.49641576e-13,
           12857.52, 13.4624343]  ),
       NASA( [1000.0, 3500.0], [4.30646568, -0.00418658892,
           4.97142807e-05, -5.99126606e-08, 2.30509004e-11,
           12841.6265, 4.70720924]  )
           ), 
       transport = gas_transport( 
                      geom = "nonlinear",
                      diam = 4.3,
                      well_depth = 34.8337690335,
                      polar = 0.0,
                       rot_relax= 1.5         )        
        )

species(name = "C2H6",
        atoms = "H:6  C:2", 
        thermo= (
)       NASA( [200.0, 1000.0], [1.0718815, 0.0216852677,
           -1.00256067e-05, 2.21412001e-09, -1.9000289e-13,
           -11426.3932, 15.1156107]  ),
       NASA( [1000.0, 3500.0], [4.29142492, -0.0055015427,
           5.99438288e-05, -7.08466285e-08, 2.68685771e-11,
           -11522.2055, 2.66682316]  )
           ), 
       transport = gas_transport( 
                      geom = "nonlinear",
                      diam = 4.3,
                      well_depth = 34.8337690335,
                      polar = 0.0,
                       rot_relax= 1.5         )        
        )

species(name = "HCCO",
        atoms = "H:1  C:2  O:1", 
        thermo= (
)       NASA( [300.0, 1000.0], [5.6282058, 0.0040853401,
           -1.5934547e-06, 2.8626052e-10, -1.9407832e-14,
           19327.215, -3.9302595]  ),
       NASA( [1000.0, 4000.0], [2.2517214, 0.017655021,
           -2.3729101e-05, 1.7275759e-08, -5.0664811e-12,
           20059.449, 12.490417]  )
           ), 
       transport = gas_transport( 
                      geom = "nonlinear",
                      diam = 2.5,
                      well_depth = 20.7097318867,
                      polar = 0.0,
                       rot_relax= 1.0         )        
        )

species(name = "CH2CO",
        atoms = "H:2  C:2  O:1", 
        thermo= (
)       NASA( [200.0, 1000.0], [4.51129732, 0.00900359745,
           -4.16939635e-06, 9.23345882e-10, -7.94838201e-14,
           -7551.05311, 0.632247205]  ),
       NASA( [1000.0, 3500.0], [2.1358363, 0.0181188721,
           -1.73947474e-05, 9.34397568e-09, -2.01457615e-12,
           -7042.91804, 12.215648]  )
           ), 
       transport = gas_transport( 
                      geom = "nonlinear",
                      diam = 3.97,
                      well_depth = 60.1962873508,
                      polar = 0.0,
                       rot_relax= 2.0         )        
        )

species(name = "HCCOH",
        atoms = "H:2  C:2  O:1", 
        thermo= (
)       NASA( [300.0, 1000.0], [5.9238291, 0.00679236,
           -2.5658564e-06, 4.4987841e-10, -2.9940101e-14,
           7264.626, -7.6017742]  ),
       NASA( [1000.0, 5000.0], [1.2423733, 0.031072201,
           -5.0866864e-05, 4.3137131e-08, -1.4014594e-11,
           8031.6143, 13.874319]  )
           ), 
       transport = gas_transport( 
                      geom = "nonlinear",
                      diam = 3.97,
                      well_depth = 60.1962873508,
                      polar = 0.0,
                       rot_relax= 2.0         )        
        )

species(name = "N",
        atoms = "N:1", 
        thermo= (
)       NASA( [200.0, 1000.0], [2.4159429, 0.00017489065,
           -1.1902369e-07, 3.0226245e-11, -2.0360982e-15,
           56133.773, 4.6496096]  ),
       NASA( [1000.0, 6000.0], [2.5, 0.0,
           0.0, 0.0, 0.0,
           56104.637, 4.1939087]  )
           ), 
       transport = gas_transport( 
                      geom = "atom",
                      diam = 3.3,
                      well_depth = 9.85783237809,
                      polar = 0.0,
                       rot_relax= 0.0         )        
        )

species(name = "NH",
        atoms = "H:1  N:1", 
        thermo= (
)       NASA( [200.0, 1000.0], [2.7836928, 0.001329843,
           -4.2478047e-07, 7.8348501e-11, -5.504447e-15,
           42120.848, 5.7407799]  ),
       NASA( [1000.0, 6000.0], [3.4929085, 0.00031179198,
           -1.4890484e-06, 2.4816442e-09, -1.0356967e-12,
           41880.629, 1.8483278]  )
           ), 
       transport = gas_transport( 
                      geom = "linear",
                      diam = 2.65,
                      well_depth = 11.0451903396,
                      polar = 0.0,
                       rot_relax= 4.0         )        
        )

species(name = "NH2",
        atoms = "H:2  N:1", 
        thermo= (
)       NASA( [200.0, 1000.0], [2.8347421, 0.0032073082,
           -9.3390804e-07, 1.3702953e-10, -7.9206144e-15,
           22171.957, 6.5204163]  ),
       NASA( [1000.0, 6000.0], [4.2040029, -0.0021061385,
           7.1068348e-06, -5.6115197e-09, 1.6440717e-12,
           21885.91, -0.14184248]  )
           ), 
       transport = gas_transport( 
                      geom = "nonlinear",
                      diam = 2.65,
                      well_depth = 11.0451903396,
                      polar = 2.26,
                       rot_relax= 4.0         )        
        )

species(name = "NH3",
        atoms = "H:3  N:1", 
        thermo= (
)       NASA( [200.0, 1000.0], [2.6344521, 0.005666256,
           -1.7278676e-06, 2.3867161e-10, -1.2578786e-14,
           -6544.6958, 6.5662928]  ),
       NASA( [1000.0, 6000.0], [4.2860274, -0.004660523,
           2.1718513e-05, -2.2808887e-08, 8.2638046e-12,
           -6741.7285, -0.62537277]  )
           ), 
       transport = gas_transport( 
                      geom = "nonlinear",
                      diam = 2.92,
                      well_depth = 66.4092069168,
                      polar = 0.0,
                       rot_relax= 10.0         )        
        )

species(name = "NNH",
        atoms = "H:1  N:2", 
        thermo= (
)       NASA( [200.0, 1000.0], [3.7667544, 0.0028915082,
           -1.041662e-06, 1.6842594e-10, -1.0091896e-14,
           28650.697, 4.4705067]  ),
       NASA( [1000.0, 6000.0], [4.3446927, -0.0048497072,
           2.0059459e-05, -2.1726464e-08, 7.9469539e-12,
           28791.973, 2.977941]  )
           ), 
       transport = gas_transport( 
                      geom = "nonlinear",
                      diam = 3.8,
                      well_depth = 9.85783237809,
                      polar = 0.0,
                       rot_relax= 1.0         )        
        )

species(name = "NO",
        atoms = "O:1  N:1", 
        thermo= (
)       NASA( [200.0, 1000.0], [3.2606056, 0.0011911043,
           -4.2917048e-07, 6.9457669e-11, -4.0336099e-15,
           9920.9746, 6.3693027]  ),
       NASA( [1000.0, 6000.0], [4.2184763, -0.004638976,
           1.1041022e-05, -9.3361354e-09, 2.803577e-12,
           9844.623, 2.2808464]  )
           ), 
       transport = gas_transport( 
                      geom = "linear",
                      diam = 3.62,
                      well_depth = 13.4654676728,
                      polar = 1.76,
                       rot_relax= 4.0         )        
        )

species(name = "NO2",
        atoms = "O:2  N:1", 
        thermo= (
)       NASA( [200.0, 1000.0], [4.8847542, 0.0021723956,
           -8.2806906e-07, 1.574751e-10, -1.0510895e-14,
           2316.4983, -0.11741695]  ),
       NASA( [1000.0, 6000.0], [3.9440312, -0.001585429,
           1.6657812e-05, -2.0475426e-08, 7.8350564e-12,
           2896.6179, 6.3119917]  )
           ), 
       transport = gas_transport( 
                      geom = "nonlinear",
                      diam = 3.5,
                      well_depth = 27.612975849,
                      polar = 0.0,
                       rot_relax= 1.0         )        
        )

species(name = "N2O",
        atoms = "O:1  N:2", 
        thermo= (
)       NASA( [200.0, 1000.0], [4.8230729, 0.0026270251,
           -9.5850874e-07, 1.6000712e-10, -9.7752303e-15,
           8073.4048, -2.2017207]  ),
       NASA( [1000.0, 6000.0], [2.2571502, 0.011304728,
           -1.3671319e-05, 9.6819806e-09, -2.9307182e-12,
           8741.7744, 10.757992]  )
           ), 
       transport = gas_transport( 
                      geom = "linear",
                      diam = 3.83,
                      well_depth = 32.0862779365,
                      polar = 0.0,
                       rot_relax= 1.0         )        
        )

species(name = "HNO",
        atoms = "H:1  O:1  N:1", 
        thermo= (
)       NASA( [200.0, 1000.0], [2.9792509, 0.0034944059,
           -7.8549778e-07, 5.7479594e-11, -1.9335916e-16,
           11750.582, 8.6063728]  ),
       NASA( [1000.0, 6000.0], [4.5334916, -0.0056696171,
           1.8473207e-05, -1.7137094e-08, 5.5454573e-12,
           11548.297, 1.7498417]  )
           ), 
       transport = gas_transport( 
                      geom = "nonlinear",
                      diam = 3.49,
                      well_depth = 16.1121714079,
                      polar = 0.0,
                       rot_relax= 1.0         )        
        )

species(name = "CN",
        atoms = "C:1  N:1", 
        thermo= (
)       NASA( [200.0, 1000.0], [3.7459805, 4.3450775e-05,
           2.9705984e-07, -6.8651806e-11, 4.4134173e-15,
           51536.188, 2.7867601]  ),
       NASA( [1000.0, 6000.0], [3.6129351, -0.00095551327,
           2.1442977e-06, -3.1516323e-10, -4.6430356e-13,
           51708.34, 3.9804995]  )
           ), 
       transport = gas_transport( 
                      geom = "linear",
                      diam = 3.86,
                      well_depth = 10.3548659434,
                      polar = 0.0,
                       rot_relax= 1.0         )        
        )

species(name = "HCN",
        atoms = "H:1  C:1  N:1", 
        thermo= (
)       NASA( [200.0, 1000.0], [3.8022392, 0.0031464228,
           -1.0632185e-06, 1.6619757e-10, -9.799757e-15,
           14407.292, 1.5754601]  ),
       NASA( [1000.0, 6000.0], [2.2589886, 0.01005117,
           -1.3351763e-05, 1.0092349e-08, -3.0089028e-12,
           14712.633, 8.9164419]  )
           ), 
       transport = gas_transport( 
                      geom = "linear",
                      diam = 3.63,
                      well_depth = 78.5589162904,
                      polar = 0.0,
                       rot_relax= 1.0         )        
        )

species(name = "H2CN",
        atoms = "H:2  C:1  N:1", 
        thermo= (
)       NASA( [300.0, 1000.0], [5.209703, 0.0029692911,
           -2.8555891e-07, -1.63555e-10, 3.0432589e-14,
           27677.109, -4.444478]  ),
       NASA( [1000.0, 4000.0], [2.851661, 0.0056952331,
           1.07114e-06, -1.622612e-09, -2.3511081e-13,
           28637.82, 8.9927511]  )
           ), 
       transport = gas_transport( 
                      geom = "linear",
                      diam = 3.63,
                      well_depth = 78.5589162904,
                      polar = 0.0,
                       rot_relax= 1.0         )        
        )

species(name = "HCNN",
        atoms = "H:1  C:1  N:2", 
        thermo= (
)       NASA( [300.0, 1000.0], [5.8946362, 0.0039895959,
           -1.598238e-06, 2.9249395e-10, -2.0094686e-14,
           53452.941, -5.1030502]  ),
       NASA( [1000.0, 5000.0], [2.5243194, 0.015960619,
           -1.8816354e-05, 1.212554e-08, -3.2357378e-12,
           54261.984, 11.67587]  )
           ), 
       transport = gas_transport( 
                      geom = "nonlinear",
                      diam = 2.5,
                      well_depth = 20.7097318867,
                      polar = 0.0,
                       rot_relax= 1.0         )        
        )

species(name = "HCNO",
        atoms = "H:1  C:1  O:1  N:1", 
        thermo= (
)       NASA( [300.0, 1382.0], [6.59860456, 0.00302778626,
           -1.07704346e-06, 1.71666528e-10, -1.01439391e-14,
           17966.1339, -10.3306599]  ),
       NASA( [1382.0, 5000.0], [2.64727989, 0.0127505342,
           -1.04794236e-05, 4.41432836e-09, -7.57521466e-13,
           19299.0252, 10.7332972]  )
           ), 
       transport = gas_transport( 
                      geom = "nonlinear",
                      diam = 3.83,
                      well_depth = 32.0862779365,
                      polar = 0.0,