#---------------------------------------------------------------------------
#  CTI File converted from Solution Object
#---------------------------------------------------------------------------

units(length = "cm", time = "s", quantity = "mol", act_energy = "cal/mol")

ideal_gas(name = "trimmed_gas", 
     elements = "H O", 
     species =""" H2 H2O """, 
     reactions = "all", 
     initial_state = state(temperature = 300.0, pressure= 101324.99999999997)   )       

#---------------------------------------------------------------------------
#  Species data
#---------------------------------------------------------------------------

species(name = "H2",
    atoms = "H:2", 
    thermo = (
       NASA(   [300.0, 1000.0], [3.298124000e+00, 8.249442000e-04,
                -8.143015000e-07,
                -9.475434000e-11, 4.134872000e-13,
                -1.012521000e+03,
                -3.294094000e+00]  ),
       NASA(   [1000.0, 5000.0], [2.991423000e+00, 7.000644000e-04,
                -5.633829000e-08,
                -9.231578000e-12, 1.582752000e-15,
                -8.350340000e+02,
                -1.355110000e+00]  )
               ),
        )

species(name = "H2O",
    atoms = "H:2  O:1", 
    thermo = (
       NASA(   [300.0, 1000.0], [3.386842000e+00, 3.474982000e-03,
                -6.354696000e-06, 6.968581000e-09,
                -2.506588000e-12,
                -3.020811000e+04, 2.590233000e+00]  ),
       NASA(   [1000.0, 5000.0], [2.672146000e+00, 3.056293000e-03,
                -8.730260000e-07, 1.200996000e-10,
                -6.391618000e-15,
                -2.989921000e+04, 6.862817000e+00]  )
               ),
        )

#---------------------------------------------------------------------------
#  Reaction Data
#---------------------------------------------------------------------------

