#---------------------------------------------------------------------------
#  CTI file converted from solution object
#---------------------------------------------------------------------------

units(length = "cm", time = "s", quantity = "mol", act_energy = "cal/mol")

ideal_gas(name = "test", 
     elements = "H O Ar He", 
     species = """ h o2 ho2 ar he h2o """, 
     reactions = "all", 
     initial_state = state(temperature = 0.001, pressure = 0.008248965315395759))

#---------------------------------------------------------------------------
#  Species data
#---------------------------------------------------------------------------

species(name = "h",
    atoms = "H:1", 
    thermo = (
       NASA(   [200.0, 1000.0], [2.500000000e+00, 0.000000000e+00,
                0.000000000e+00, 0.000000000e+00,
                0.000000000e+00, 2.547366000e+04,
                -4.466828500e-01]  ),
       NASA(   [1000.0, 6000.0], [2.500000000e+00, 0.000000000e+00,
                0.000000000e+00, 0.000000000e+00,
                0.000000000e+00, 2.547366000e+04,
                -4.466828500e-01]  )
                ),
       )

species(name = "o2",
    atoms = "O:2", 
    thermo = (
       NASA(   [200.0, 1000.0], [3.782456360e+00, -2.996734160e-03,
                9.847302010e-06, -9.681295090e-09,
                3.243728370e-12, -1.063943560e+03,
                3.657675730e+00]  ),
       NASA(   [1000.0, 6000.0], [3.660960650e+00, 6.563658110e-04,
                -1.411496270e-07, 2.057979350e-11,
                -1.299134360e-15,
                -1.215977180e+03, 3.415362790e+00]  )
                ),
       )

species(name = "ho2",
    atoms = "H:1, O:2", 
    thermo = (
       NASA(   [200.0, 1000.0], [4.301798070e+00, -4.749120970e-03,
                2.115829050e-05, -2.427639140e-08,
                9.292252250e-12, 2.640184850e+02,
                3.716662200e+00]  ),
       NASA(   [1000.0, 5000.0], [4.172287410e+00, 1.881176270e-03,
                -3.462772860e-07, 1.946575490e-11,
                1.762569050e-16, 3.102068390e+01,
                2.957676720e+00]  )
                ),
       )

species(name = "ar",
    atoms = "Ar:1", 
    thermo = (
       NASA(   [200.0, 1000.0], [2.500000000e+00, 0.000000000e+00,
                0.000000000e+00, 0.000000000e+00,
                0.000000000e+00, -7.453750000e+02,
                4.379674910e+00]  ),
       NASA(   [1000.0, 6000.0], [2.500000000e+00, 0.000000000e+00,
                0.000000000e+00, 0.000000000e+00,
                0.000000000e+00, -7.453750000e+02,
                4.379674910e+00]  )
                ),
       )

species(name = "he",
    atoms = "He:1", 
    thermo = (
       NASA(   [200.0, 1000.0], [2.500000000e+00, 0.000000000e+00,
                0.000000000e+00, 0.000000000e+00,
                0.000000000e+00, -7.453750000e+02,
                9.287239740e-01]  ),
       NASA(   [1000.0, 6000.0], [2.500000000e+00, 0.000000000e+00,
                0.000000000e+00, 0.000000000e+00,
                0.000000000e+00, -7.453750000e+02,
                9.287239740e-01]  )
                ),
       )

species(name = "h2o",
    atoms = "H:2, O:1", 
    thermo = (
       NASA(   [200.0, 1000.0], [4.198635200e+00, -2.036401700e-03,
                6.520341600e-06, -5.487926900e-09,
                1.771968000e-12, -3.029372600e+04,
                -8.490090100e-01]  ),
       NASA(   [1000.0, 6000.0], [2.677038900e+00, 2.973181600e-03,
                -7.737688900e-07, 9.443351400e-11,
                -4.268999100e-15,
                -2.988589400e+04, 6.882550000e+00]  )
                ),
       )

#---------------------------------------------------------------------------
#  Reactions
#---------------------------------------------------------------------------

#  Reaction 1
falloff_reaction( "h + o2 (+M) <=> ho2 (+M)",
          kf = [4.650000E+12, 0.44, 0.0],
          kf0 = [1.737000E+19, -1.23, 0.0],
          falloff = Troe(A = 0.67, T3 = 1e-30, T1 = 1.0e+30, T2 = 1e+30),
          efficiencies = "ar:0.0  h2o:10.0  he:0.0")

#  Reaction 2
falloff_reaction( "h + o2 (+ar) <=> ho2 (+ar)",
          kf = [4.650000E+12, 0.44, 0.0],
          kf0 = [6.810000E+18, -1.2, 0.0],
          falloff = Troe(A = 0.7, T3 = 1e-30, T1 = 1.0e+30, T2 = 1e+30))

#  Reaction 3
falloff_reaction( "h + o2 (+he) <=> ho2 (+he)",
          kf = [4.650000E+12, 0.44, 0.0],
          kf0 = [9.192000E+18, -1.2, 0.0],
          falloff = Troe(A = 0.59, T3 = 1e-30, T1 = 1.0e+30, T2 = 1e+30))

