#---------------------------------------------------------------------------
#  CTI File converted from Solution Object
#---------------------------------------------------------------------------

units(length = "cm", time = "s", quantity = "mol", act_energy = "cal/mol")

ideal_gas(name = "gri30", 
     elements = "O C H N", 
     species =""" O2 CH3 CH4 NNH HNCO N2 C3H8 CH2CHO CH3CHO """, 
     reactions = "all", 
     initial_state = state(temperature = 300.0, pressure= 101325.0)   )       

#---------------------------------------------------------------------------
#  Species data
#---------------------------------------------------------------------------

species(name = "O2",
    atoms = "O:2", 
    thermo = (
       NASA(   [200.0, 1000.0], [3.782456360e+00, -2.996734160e-03,
                9.847302010e-06, -9.681295090e-09,
                3.243728370e-12, -1.063943560e+03,
                3.657675730e+00]  ),
       NASA(   [1000.0, 3500.0], [3.282537840e+00, 1.483087540e-03,
                -7.579666690e-07, 2.094705550e-10,
                -2.167177940e-14,
                -1.088457720e+03, 5.453231290e+00]  )
               ),
    transport = gas_transport(
                   geom = "linear",
                   diam = 3.46, 
                   well_depth = 107.4, 
                   polar = 1.6, 
                   rot_relax = 3.8) 
        )

species(name = "CH3",
    atoms = "C:1  H:3", 
    thermo = (
       NASA(   [200.0, 1000.0], [3.673590400e+00, 2.010951750e-03,
                5.730218560e-06, -6.871174250e-09,
                2.543857340e-12, 1.644499880e+04,
                1.604564330e+00]  ),
       NASA(   [1000.0, 3500.0], [2.285717720e+00, 7.239900370e-03,
                -2.987143480e-06, 5.956846440e-10,
                -4.671543940e-14, 1.677558430e+04,
                8.480071790e+00]  )
               ),
    transport = gas_transport(
                   geom = "linear",
                   diam = 3.8, 
                   well_depth = 144.0, 
                   polar = 0.0, 
                   rot_relax = 0.0) 
        )

species(name = "CH4",
    atoms = "C:1  H:4", 
    thermo = (
       NASA(   [200.0, 1000.0], [5.149876130e+00, -1.367097880e-02,
                4.918005990e-05, -4.847430260e-08,
                1.666939560e-11, -1.024664760e+04,
                -4.641303760e+00]  ),
       NASA(   [1000.0, 3500.0], [7.485149500e-02, 1.339094670e-02,
                -5.732858090e-06, 1.222925350e-09,
                -1.018152300e-13,
                -9.468344590e+03, 1.843731800e+01]  )
               ),
    transport = gas_transport(
                   geom = "nonlinear",
                   diam = 3.75, 
                   well_depth = 141.4, 
                   polar = 2.6, 
                   rot_relax = 13.0) 
        )

species(name = "NNH",
    atoms = "H:1  N:2", 
    thermo = (
       NASA(   [200.0, 1000.0], [4.344692700e+00, -4.849707200e-03,
                2.005945900e-05, -2.172646400e-08,
                7.946953900e-12, 2.879197300e+04,
                2.977941000e+00]  ),
       NASA(   [1000.0, 6000.0], [3.766754400e+00, 2.891508200e-03,
                -1.041662000e-06, 1.684259400e-10,
                -1.009189600e-14, 2.865069700e+04,
                4.470506700e+00]  )
               ),
    transport = gas_transport(
                   geom = "nonlinear",
                   diam = 3.8, 
                   well_depth = 71.4, 
                   polar = 0.0, 
                   rot_relax = 1.0) 
        )

species(name = "HNCO",
    atoms = "C:1  H:1  N:1  O:1", 
    thermo = (
       NASA(   [300.0, 1478.0], [3.630963170e+00, 7.302823570e-03,
                -2.280500030e-06,
                -6.612712980e-10, 3.622357520e-13,
                -1.558736360e+04, 6.194577270e+00]  ),
       NASA(   [1478.0, 5000.0], [6.223951340e+00, 3.178640040e-03,
                -1.093787550e-06, 1.707351630e-10,
                -9.950219550e-15,
                -1.665993440e+04,
                -8.382247410e+00]  )
               ),
    transport = gas_transport(
                   geom = "nonlinear",
                   diam = 3.83, 
                   well_depth = 232.4, 
                   polar = 0.0, 
                   rot_relax = 1.0) 
        )

species(name = "N2",
    atoms = "N:2", 
    thermo = (
       NASA(   [300.0, 1000.0], [3.298677000e+00, 1.408240400e-03,
                -3.963222000e-06, 5.641515000e-09,
                -2.444854000e-12,
                -1.020899900e+03, 3.950372000e+00]  ),
       NASA(   [1000.0, 5000.0], [2.926640000e+00, 1.487976800e-03,
                -5.684760000e-07, 1.009703800e-10,
                -6.753351000e-15,
                -9.227977000e+02, 5.980528000e+00]  )
               ),
    transport = gas_transport(
                   geom = "linear",
                   diam = 3.6200000000000006, 
                   well_depth = 97.53, 
                   polar = 1.76, 
                   rot_relax = 4.0) 
        )

species(name = "C3H8",
    atoms = "C:3  H:8", 
    thermo = (
       NASA(   [300.0, 1000.0], [9.335538100e-01, 2.642457900e-02,
                6.105972700e-06, -2.197749900e-08,
                9.514925300e-12, -1.395852000e+04,
                1.920169100e+01]  ),
       NASA(   [1000.0, 5000.0], [7.534136800e+00, 1.887223900e-02,
                -6.271849100e-06, 9.147564900e-10,
                -4.783806900e-14,
                -1.646751600e+04,
                -1.789234900e+01]  )
               ),
    transport = gas_transport(
                   geom = "nonlinear",
                   diam = 4.98, 
                   well_depth = 266.8, 
                   polar = 0.0, 
                   rot_relax = 1.0) 
        )

species(name = "CH2CHO",
    atoms = "C:2  H:3  O:1", 
    thermo = (
       NASA(   [300.0, 1000.0], [3.409062000e+00, 1.073857400e-02,
                1.891492000e-06, -7.158583000e-09,
                2.867385000e-12, 1.521476600e+03,
                9.558290000e+00]  ),
       NASA(   [1000.0, 5000.0], [5.975670000e+00, 8.130591000e-03,
                -2.743624000e-06, 4.070304000e-10,
                -2.176017000e-14, 4.903218000e+02,
                -5.045251000e+00]  )
               ),
    transport = gas_transport(
                   geom = "nonlinear",
                   diam = 3.97, 
                   well_depth = 436.0, 
                   polar = 0.0, 
                   rot_relax = 2.0) 
        )

species(name = "CH3CHO",
    atoms = "C:2  H:4  O:1", 
    thermo = (
       NASA(   [200.0, 1000.0], [4.729459500e+00, -3.193285800e-03,
                4.753492100e-05, -5.745861100e-08,
                2.193111200e-11, -2.157287800e+04,
                4.103015900e+00]  ),
       NASA(   [1000.0, 6000.0], [5.404110800e+00, 1.172305900e-02,
                -4.226313700e-06, 6.837245100e-10,
                -4.098486300e-14,
                -2.259312200e+04,
                -3.480791700e+00]  )
               ),
    transport = gas_transport(
                   geom = "nonlinear",
                   diam = 3.97, 
                   well_depth = 436.0, 
                   polar = 0.0, 
                   rot_relax = 2.0) 
        )

#---------------------------------------------------------------------------
#  Reaction Data
#---------------------------------------------------------------------------

#  Reaction 1
reaction( "CH3 + NNH <=> CH4 + N2", [2.50000E+13, 0.0, 0.0])

